%chk=G-stretched09
%NProcShared=8
#P bmk/6-31+g ! ASE formatted method and basis
opt(modredun,calcfc)

Gaussian input prepared by ASE

0 1
C                 0.0000000000        0.0000000000        0.0000000000
H                -0.1514838526       -1.0811171273       -0.0001089500
H                -0.3400199644        0.4968568344        0.9112781123
H                -0.3400232955        0.4970439975       -0.9111748877
C                 1.8679290628        0.5109393408        0.0000493832
O                 1.9164634564        1.7458281381        0.0001713672
N                 3.1606146789       -0.2084007153       -0.0000220436
H                 3.1692175982       -1.2207476196       -0.0001280464
C                 4.6109961808        0.5055264109        0.0000484775
H                 4.6274840114        1.1497745067        0.8877524721
H                 4.6274836629        1.1499503303       -0.8875275279
C                 6.1198679623       -0.3577092939       -0.0000410207
O                 6.0734740582       -1.5886525070       -0.0001760054
N                 7.3957200356        0.3712516159        0.0000415580
H                 7.2827321793        1.3797348424        0.0001555953
C                 9.0856974802        0.0000000000        0.0000000000
H                 9.4831774242        0.4476672281        0.9149298688
H                 9.1556034911       -1.0887171808       -0.0000760231
H                 9.4831671517        0.4477957742       -0.9148711312

1 16 F
